Version 4
SHEET 1 2980 1676
WIRE 1584 880 1584 864
WIRE 1584 992 1584 960
WIRE 1680 1072 1648 1072
WIRE 1744 1248 1744 1216
WIRE 1824 864 1584 864
WIRE 1824 928 1824 864
WIRE 1872 864 1824 864
WIRE 1904 1232 1904 1216
WIRE 1904 1248 1904 1232
WIRE 1904 1328 1904 1312
WIRE 1968 1232 1904 1232
WIRE 1984 1152 1968 1152
WIRE 2000 864 1952 864
WIRE 2000 992 1968 992
WIRE 2000 992 2000 864
WIRE 2048 864 2000 864
WIRE 2096 1232 2048 1232
WIRE 2096 1248 2096 1232
WIRE 2096 1328 2096 1312
WIRE 2160 864 2112 864
WIRE 2160 912 2160 864
WIRE 2160 1072 1968 1072
WIRE 2160 1072 2160 992
WIRE 2160 1088 2160 1072
WIRE 2160 1184 2160 1168
WIRE 2288 864 2160 864
WIRE 2288 992 2288 864
WIRE 2288 1184 2288 1056
WIRE 2416 864 2288 864
WIRE 2416 992 2416 864
WIRE 2416 1184 2416 1072
FLAG 2416 864 OUT
FLAG 2160 1184 0
FLAG 2288 1184 0
FLAG 2416 1184 0
FLAG 2096 1328 0
FLAG 1744 1248 0
FLAG 1584 992 0
FLAG 1904 1328 0
FLAG 1584 864 IN
SYMBOL LOAD2 2416 992 R0
WINDOW 123 0 0 Left 0
SYMATTR InstName Iload
SYMATTR Value 1.75
SYMATTR SpiceLine load
SYMBOL ind 1856 880 R270
WINDOW 0 32 56 VTop 0
WINDOW 3 5 56 VBottom 0
SYMATTR InstName L1
SYMATTR Value 4.7µ
SYMBOL schottky 2048 880 R270
WINDOW 0 32 32 VTop 0
WINDOW 3 0 32 VBottom 0
SYMATTR InstName D1
SYMATTR Value MBR745
SYMBOL RES 2144 896 R0
SYMATTR InstName R1
SYMATTR Value 53.6K
SYMBOL RES 2144 1072 R0
SYMATTR InstName R2
SYMATTR Value 6.19K
SYMBOL RES 1952 1248 R270
WINDOW 0 32 56 VTop 0
WINDOW 3 0 56 VBottom 0
SYMATTR InstName R3
SYMATTR Value 2K
SYMBOL polcap 2272 992 R0
SYMATTR InstName C2
SYMATTR Value 44µ
SYMATTR SpiceLine Rser=0.07
SYMBOL CAP 2080 1248 R0
SYMATTR InstName C4
SYMATTR Value 0.047µ
SYMBOL VOLTAGE 1584 864 R0
WINDOW 123 0 0 Left 0
SYMATTR InstName V1
SYMATTR Value 5
SYMBOL PowerProducts\\LT1370HV 1824 1072 R0
SYMATTR InstName U1
SYMBOL cap 1888 1248 R0
SYMATTR InstName C3
SYMATTR Value 4700p
TEXT 2312 1256 Left 0 !.tran 1m startup
TEXT 2032 816 Bottom 0 ;LT1370HV - 500kHz High Efficiency 6A Switching Regulator\nInput: 5V  Output: 12V @ 1.75A
TEXT 1504 1344 Left 0 ;Note:\n  If the simulation model is not found please update with the "Sync Release" command from the "Tools" menu.\n  It remains the customer's responsibility to verify proper and reliable operation in the actual application.\n  Component substitution and printed circuit board layout may significantly affect circuit performance or reliability\n  Contact your local sales representative for assistance. This circuit is distributed to customers only for use with LTC parts\n  Copyright © 2006 Linear Technology Inc. All rights reserved.
